AquaCrop 7.2 (August 2024) - Output created on (date) : 14-11-2024   at (time) : 16:47:56
Biomass and Yield at Multiple cuttings
