AquaCrop 7.2 (August 2024) - Output created on (date) : 20-11-2024   at (time) : 14:57:01
Biomass and Yield at Multiple cuttings

   Run:   1
    Nr   Day  Month Year   DAP Interval  Biomass    Sum(B)   Dry-Yield  Sum(Y) Fresh-Yield  Sum(Y)
                                 days     ton/ha    ton/ha    ton/ha    ton/ha    ton/ha    ton/ha
     0    31    12  2007                             0.000               0.000               0.000
  9999     7     6  2008                             4.476               3.801              38.011
