AquaCrop 7.2 (August 2024) - Output created on (date) : 20-11-2024   at (time) : 14:57:01

   Run:   1
   Day Month  Year   DAP Stage   WC(1.20)   Rain     Irri   Surf   Infilt   RO    Drain       CR    Zgwt       Ex       E     E/Ex     Trx       Tr  Tr/Trx    ETx      ET  ET/ETx      GD       Z     StExp  StSto  StSen StSalt StWeed   CC      CCw     StTr  Kc(Tr)     Trx       Tr      TrW  Tr/Trx   WP    Biomass     HI    Y(dry)  Y(fresh)  Brelative    WPet      Bin     Bout  WC(1.20) Wr(0.40)     Z       Wr    Wr(SAT)    Wr(FC)   Wr(exp)   Wr(sto)   Wr(sen)   Wr(PWP)    SaltIn    SaltOut   SaltUp   Salt(1.20)  SaltZ     Z       ECe    ECsw   StSalt  Zgwt    ECgw       WC01       WC 2       WC 3       WC 4       WC 5       WC 6       WC 7       WC 8       WC 9       WC10       WC11       WC12      ECe01      ECe 2      ECe 3      ECe 4      ECe 5      ECe 6      ECe 7      ECe 8      ECe 9      ECe10      ECe11      ECe12     Rain       ETo      Tmin      Tavg      Tmax      CO2
                                      mm      mm       mm     mm     mm     mm       mm       mm      m        mm       mm     %        mm       mm    %        mm      mm       %  degC-day     m       %      %      %      %      %      %       %       %       -        mm       mm       mm    %     g/m2    ton/ha      %    ton/ha   ton/ha       %       kg/m3   ton/ha   ton/ha      mm       mm       m       mm        mm        mm        mm        mm        mm         mm    ton/ha    ton/ha    ton/ha    ton/ha    ton/ha     m      dS/m    dS/m      %     m      dS/m       0.05       0.15       0.25       0.35       0.45       0.55       0.65       0.75       0.85       0.95       1.05       1.15       0.05       0.15       0.25       0.35       0.45       0.55       0.65       0.75       0.85       0.95       1.05       1.15       mm        mm     degC      degC      degC       ppm
    31    12  2007     1     1     359.8     0.0      0.0    0.0    0.0    0.0      0.0      0.0   -9.90      0.2      0.2     99      0.0      0.0   100      0.2     0.2      99     11.5    0.30     -9      0      0      0      0     1.2     1.2      0     0.02      0.0      0.0      0.0   100    17.7     0.004    -9.9    0.000    0.000     100        0.00    0.000    0.000     359.8    119.8    0.30    89.8     150.0      90.0      64.8      51.5      34.7      30.0    0.000     0.000     0.000     0.000     0.000    0.30     0.00    0.00      0   -9.90   -9.00       29.8       30.0       30.0       30.0       30.0       30.0       30.0       30.0       30.0       30.0       30.0       30.0        0.0        0.0        0.0        0.0        0.0        0.0        0.0        0.0        0.0        0.0        0.0        0.0      0.0       0.2       6.0      15.5      25.0    384.92
     1     1  2008     2     2     359.7     0.0      0.0    0.0    0.0    0.0      0.0      0.0   -9.90      0.1      0.1     97      0.0      0.0   100      0.1     0.1      97      2.8    0.30     -9      0      0      0      0     1.2     1.2     71     0.02      0.0      0.0      0.0   100    17.7     0.005    20.0    0.001    0.010     100        0.32    0.000    0.000     359.7    119.7    0.30    89.7     150.0      90.0      64.5      51.3      34.6      30.0    0.000     0.000     0.000     0.000     0.000    0.30     0.00    0.00      0   -9.90   -9.00       29.7       30.0       30.0       30.0       30.0       30.0       30.0       30.0       30.0       30.0       30.0       30.0        0.0        0.0        0.0        0.0        0.0        0.0        0.0        0.0        0.0        0.0        0.0        0.0      0.0       0.1       6.0       6.8       7.5    384.92
     2     1  2008     3     2     359.6     0.0      0.0    0.0    0.0    0.0      0.0      0.0   -9.90      0.1      0.1     97      0.0      0.0   100      0.1     0.1      97      2.0    0.30     -9      0      0      0      0     1.3     1.3     86     0.02      0.0      0.0      0.0   100    17.7     0.006    27.0    0.002    0.015     100        0.41    0.000    0.000     359.6    119.6    0.30    89.6     150.0      90.0      64.4      51.2      34.6      30.0    0.000     0.000     0.000     0.000     0.000    0.30     0.00    0.00      0   -9.90   -9.00       29.6       30.0       30.0       30.0       30.0       30.0       30.0       30.0       30.0       30.0       30.0       30.0        0.0        0.0        0.0        0.0        0.0        0.0        0.0        0.0        0.0        0.0        0.0        0.0      0.0       0.1       6.0       6.0       6.0    384.92
     3     1  2008     4     2     359.6     0.0      0.0    0.0    0.0    0.0      0.0      0.0   -9.90      0.1      0.1     96      0.0      0.0   100      0.1     0.1      96      2.0    0.30      0      0      0      0      0     1.3     1.3     86     0.02      0.0      0.0      0.0   100    17.7     0.006    32.8    0.002    0.021     100        0.48    0.000    0.000     359.6    119.6    0.30    89.6     150.0      90.0      64.5      51.2      34.6      30.0    0.000     0.000     0.000     0.000     0.000    0.30     0.00    0.00      0   -9.90   -9.00       29.6       30.0       30.0       30.0       30.0       30.0       30.0       30.0       30.0       30.0       30.0       30.0        0.0        0.0        0.0        0.0        0.0        0.0        0.0        0.0        0.0        0.0        0.0        0.0      0.0       0.1       6.0       6.0       6.0    384.92
     4     1  2008     5     2     359.5     0.0      0.0    0.0    0.0    0.0      0.0      0.0   -9.90      0.1      0.1     95      0.0      0.0   100      0.1     0.1      95      2.2    0.30      0      0      0      0      0     1.4     1.4     82     0.03      0.0      0.0      0.0   100    17.7     0.007    38.7    0.003    0.028     100        0.55    0.000    0.000     359.5    119.5    0.30    89.5     150.0      90.0      64.5      51.2      34.6      30.0    0.000     0.000     0.000     0.000     0.000    0.30     0.00    0.00      0   -9.90   -9.00       29.5       30.0       30.0       30.0       30.0       30.0       30.0       30.0       30.0       30.0       30.0       30.0        0.0        0.0        0.0        0.0        0.0        0.0        0.0        0.0        0.0        0.0        0.0        0.0      0.0       0.1       6.0       6.2       6.4    384.92
     5     1  2008     6     2     359.3     0.0      0.0    0.0    0.0    0.0      0.0      0.0   -9.90      0.2      0.2     94      0.0      0.0   100      0.3     0.2      94     11.5    0.32      0      0      0      0      0     1.7     1.7      0     0.03      0.0      0.0      0.0   100    17.7     0.013    59.0    0.008    0.076     100        1.01    0.000    0.000     359.3    119.3    0.32    95.0     159.6      95.8      69.0      54.8      37.0      31.9    0.000     0.000     0.000     0.000     0.000    0.32     0.00    0.00      0   -9.90   -9.00       29.3       30.0       30.0       30.0       30.0       30.0       30.0       30.0       30.0       30.0       30.0       30.0        0.0        0.0        0.0        0.0        0.0        0.0        0.0        0.0        0.0        0.0        0.0        0.0      0.0       0.2       6.0      15.5      25.0    384.92
     6     1  2008     7     2     358.9     0.0      0.0    0.0    0.0    0.0      0.0      0.0   -9.90      0.3      0.3     91      0.0      0.0   100      0.3     0.3      91     11.4    0.34      0      0      0      0      0     2.1     2.1      0     0.04      0.0      0.0      0.0   100    17.7     0.020    68.1    0.013    0.134     100        1.26    0.000    0.000     358.9    118.9    0.34   102.4     172.3     103.4      74.7      59.4      40.0      34.5    0.000     0.000     0.000     0.000     0.000    0.34     0.00    0.00      0   -9.90   -9.00       28.9       30.0       30.0       30.0       30.0       30.0       30.0       30.0       30.0       30.0       30.0       30.0        0.0        0.0        0.0        0.0        0.0        0.0        0.0        0.0        0.0        0.0        0.0        0.0      0.0       0.3       6.0      15.4      24.8    384.92
     7     1  2008     8     2     358.4     0.0      0.0    0.0    0.0    0.0      0.0      0.0   -9.90      0.5      0.5     87      0.0      0.0   100      0.6     0.5      88     11.5    0.37      0      0      0      0      0     2.6     2.6      0     0.05      0.0      0.0      0.0   100    17.7     0.028    73.1    0.021    0.205     100        1.32    0.000    0.000     358.4    118.4    0.37   108.9     184.0     110.4      80.3      63.8      43.0      36.8    0.000     0.000     0.000     0.000     0.000    0.37     0.00    0.00      0   -9.90   -9.00       28.4       30.0       30.0       30.0       30.0       30.0       30.0       30.0       30.0       30.0       30.0       30.0        0.0        0.0        0.0        0.0        0.0        0.0        0.0        0.0        0.0        0.0        0.0        0.0      0.0       0.5       6.0      15.5      25.0    384.92
     8     1  2008     9     2     358.1     0.0      0.0    0.0    0.0    0.0      0.0      0.0   -9.90      0.4      0.3     83      0.0      0.0   100      0.4     0.3      84     10.4    0.39      0      0      0      0      0     3.1     3.1      0     0.06      0.0      0.0      0.0   100    17.7     0.038    76.3    0.029    0.291     100        1.54    0.000    0.000     358.1    118.1    0.39   114.5     193.9     116.3      84.2      66.9      45.1      38.8    0.000     0.000     0.000     0.000     0.000    0.39     0.00    0.00      0   -9.90   -9.00       28.1       30.0       30.0       30.0       30.0       30.0       30.0       30.0       30.0       30.0       30.0       30.0        0.0        0.0        0.0        0.0        0.0        0.0        0.0        0.0        0.0        0.0        0.0        0.0      0.0       0.4       7.3      14.4      21.5    384.92
     9     1  2008    10     2     357.7     0.0      0.0    0.0    0.0    0.0      0.0      0.0   -9.90      0.4      0.4     80      0.0      0.0   100      0.5     0.4      81     11.5    0.40      0      0      0      0      0     3.8     3.8      0     0.07      0.0      0.0      0.0   100    17.7     0.050    78.4    0.040    0.396     100        1.74    0.000    0.000     357.7    117.7    0.40   117.7     200.0     120.0      87.0      69.2      46.6      40.0    0.000     0.000     0.000     0.000     0.000    0.40     0.00    0.00      0   -9.90   -9.00       27.7       30.0       30.0       30.0       30.0       30.0       30.0       30.0       30.0       30.0       30.0       30.0        0.0        0.0        0.0        0.0        0.0        0.0        0.0        0.0        0.0        0.0        0.0        0.0      0.0       0.4       6.0      15.5      25.0    384.92
    10     1  2008    11     2     357.6     0.0      0.0    0.0    0.0    0.0      0.0      0.0   -9.90      0.2      0.1     78      0.0      0.0   100      0.2     0.1      79      3.8    0.40      0      0      0      0      0     4.0     4.0     43     0.07      0.0      0.0      0.0   100    17.7     0.058    79.3    0.046    0.460     100        1.91    0.000    0.000     357.6    117.6    0.40   117.6     200.0     120.0      86.2      68.5      46.2      40.0    0.000     0.000     0.000     0.000     0.000    0.40     0.00    0.00      0   -9.90   -9.00       27.6       30.0       30.0       30.0       30.0       30.0       30.0       30.0       30.0       30.0       30.0       30.0        0.0        0.0        0.0        0.0        0.0        0.0        0.0        0.0        0.0        0.0        0.0        0.0      0.0       0.1       6.0       7.8       9.6    384.92
    11     1  2008    12     2     357.3     0.0      0.0    0.0    0.0    0.0      0.0      0.0   -9.90      0.3      0.3     76      0.0      0.0   100      0.4     0.3      78     11.5    0.40      0      0      0      0      0     5.0     5.0      0     0.09      0.0      0.0      0.0   100    17.7     0.074    80.5    0.060    0.596     100        2.21    0.000    0.000     357.3    117.3    0.40   117.3     200.0     120.0      86.7      69.0      46.5      40.0    0.000     0.000     0.000     0.000     0.000    0.40     0.00    0.00      0   -9.90   -9.00       27.3       30.0       30.0       30.0       30.0       30.0       30.0       30.0       30.0       30.0       30.0       30.0        0.0        0.0        0.0        0.0        0.0        0.0        0.0        0.0        0.0        0.0        0.0        0.0      0.0       0.3       6.0      15.5      25.0    384.92
    12     1  2008    13     2     357.0     0.0      0.0    0.0    0.0    0.0      0.0      0.0   -9.90      0.4      0.3     74      0.0      0.0   100      0.4     0.3      76     11.5    0.40      0      0      0      0      0     6.1     6.1      0     0.11      0.0      0.0      0.0   100    17.7     0.094    81.4    0.076    0.762     100        2.53    0.000    0.000     357.0    117.0    0.40   117.0     200.0     120.0      86.8      69.0      46.5      40.0    0.000     0.000     0.000     0.000     0.000    0.40     0.00    0.00      0   -9.90   -9.00       27.0       30.0       30.0       30.0       30.0       30.0       30.0       30.0       30.0       30.0       30.0       30.0        0.0        0.0        0.0        0.0        0.0        0.0        0.0        0.0        0.0        0.0        0.0        0.0      0.0       0.4       6.0      15.5      25.0    384.92
    13     1  2008    14     2     356.9     0.0      0.0    0.0    0.0    0.0      0.0      0.0   -9.90      0.1      0.0     72      0.0      0.0   100      0.1     0.1      73      2.0    0.40      0      0      0      0      0     6.3     6.3     86     0.11      0.0      0.0      0.0   100    17.7     0.097    81.6    0.079    0.787     100        2.57    0.000    0.000     356.9    116.9    0.40   116.9     200.0     120.0      86.0      68.3      46.1      40.0    0.000     0.000     0.000     0.000     0.000    0.40     0.00    0.00      0   -9.90   -9.00       26.9       30.0       30.0       30.0       30.0       30.0       30.0       30.0       30.0       30.0       30.0       30.0        0.0        0.0        0.0        0.0        0.0        0.0        0.0        0.0        0.0        0.0        0.0        0.0      0.0       0.1       6.0       6.0       6.0    384.92
    14     1  2008    15     2     356.9     0.0      0.0    0.0    0.0    0.0      0.0      0.0   -9.90      0.1      0.1     72      0.0      0.0   100      0.1     0.1      72      2.3    0.40      0      0      0      0      0     6.6     6.6     81     0.12      0.0      0.0      0.0   100    17.7     0.101    81.7    0.082    0.822     100        2.64    0.000    0.000     356.9    116.9    0.40   116.9     200.0     120.0      86.0      68.3      46.2      40.0    0.000     0.000     0.000     0.000     0.000    0.40     0.00    0.00      0   -9.90   -9.00       26.9       30.0       30.0       30.0       30.0       30.0       30.0       30.0       30.0       30.0       30.0       30.0        0.0        0.0        0.0        0.0        0.0        0.0        0.0        0.0        0.0        0.0        0.0        0.0      0.0       0.1       6.0       6.3       6.6    384.92
    15     1  2008    16     2     356.8     0.0      0.0    0.0    0.0    0.0      0.0      0.0   -9.90      0.1      0.1     71      0.0      0.0   100      0.1     0.1      72      2.3    0.40      0      0      0      0      0     6.8     6.8     80     0.12      0.0      0.0      0.0   100    17.7     0.105    81.8    0.086    0.859     100        2.69    0.000    0.000     356.8    116.8    0.40   116.8     200.0     120.0      86.1      68.4      46.2      40.0    0.000     0.000     0.000     0.000     0.000    0.40     0.00    0.00      0   -9.90   -9.00       26.8       30.0       30.0       30.0       30.0       30.0       30.0       30.0       30.0       30.0       30.0       30.0        0.0        0.0        0.0        0.0        0.0        0.0        0.0        0.0        0.0        0.0        0.0        0.0      0.0       0.1       6.0       6.3       6.7    384.92
    16     1  2008    17     2     356.7     0.0      0.0    0.0    0.0    0.0      0.0      0.0   -9.90      0.2      0.1     70      0.0      0.0   100      0.2     0.1      74     10.9    0.40      0      0      0      0      0     8.3     8.3      0     0.15      0.0      0.0      0.0   100    17.7     0.131    82.5    0.108    1.083     100        3.24    0.000    0.000     356.7    116.7    0.40   116.7     200.0     120.0      86.3      68.6      46.3      40.0    0.000     0.000     0.000     0.000     0.000    0.40     0.00    0.00      0   -9.90   -9.00       26.7       30.0       30.0       30.0       30.0       30.0       30.0       30.0       30.0       30.0       30.0       30.0        0.0        0.0        0.0        0.0        0.0        0.0        0.0        0.0        0.0        0.0        0.0        0.0      0.0       0.2       6.0      14.9      23.8    384.92
    17     1  2008    18     2     356.5     0.0      0.0    0.0    0.0    0.0      0.0      0.0   -9.90      0.2      0.1     69      0.0      0.0   100      0.2     0.1      73      4.7    0.40      0      0      0      0      0     9.0     9.0     22     0.16      0.0      0.0      0.0   100    17.7     0.153    82.8    0.127    1.271     100        3.66    0.000    0.000     356.5    116.5    0.40   116.5     200.0     120.0      86.3      68.6      46.3      40.0    0.000     0.000     0.000     0.000     0.000    0.40     0.00    0.00      0   -9.90   -9.00       26.5       30.0       30.0       30.0       30.0       30.0       30.0       30.0       30.0       30.0       30.0       30.0        0.0        0.0        0.0        0.0        0.0        0.0        0.0        0.0        0.0        0.0        0.0        0.0      0.0       0.2       6.0       8.7      11.3    384.92
    18     1  2008    19     2     356.2     0.0      0.0    0.0    0.0    0.0      0.0      0.0   -9.90      0.3      0.2     68      0.1      0.1   100      0.4     0.3      73      7.5    0.40      0      0      0      0      0    10.3    10.3      0     0.18      0.1      0.1      0.1   100    17.7     0.186    83.2    0.155    1.546     100        4.11    0.000    0.000     356.2    116.2    0.40   116.2     200.0     120.0      86.8      69.0      46.5      40.0    0.000     0.000     0.000     0.000     0.000    0.40     0.00    0.00      0   -9.90   -9.00       26.2       30.0       30.0       30.0       30.0       30.0       30.0       30.0       30.0       30.0       30.0       30.0        0.0        0.0        0.0        0.0        0.0        0.0        0.0        0.0        0.0        0.0        0.0        0.0      0.0       0.4       6.0      11.5      17.0    384.92
    19     1  2008    20     2     356.1     0.0      0.0    0.0    0.0    0.0      0.0      0.0   -9.90      0.1      0.1     66      0.0      0.0   100      0.1     0.1      71      4.2    0.40      0      0      0      0      0    11.1    11.1     31     0.20      0.0      0.0      0.0   100    17.7     0.210    83.4    0.175    1.748     100        4.52    0.000    0.000     356.1    116.1    0.40   116.1     200.0     120.0      86.2      68.5      46.2      40.0    0.000     0.000     0.000     0.000     0.000    0.40     0.00    0.00      0   -9.90   -9.00       26.1       30.0       30.0       30.0       30.0       30.0       30.0       30.0       30.0       30.0       30.0       30.0        0.0        0.0        0.0        0.0        0.0        0.0        0.0        0.0        0.0        0.0        0.0        0.0      0.0       0.1       6.0       8.2      10.5    384.92
    20     1  2008    21     2     356.0     0.0      0.0    0.0    0.0    0.0      0.0      0.0   -9.90      0.2      0.1     65      0.0      0.0   100      0.2     0.1      66      2.0    0.40      0      0      0      0      0    11.5    11.5     86     0.20      0.0      0.0      0.0   100    17.7     0.215    83.5    0.179    1.792     100        4.48    0.000    0.000     356.0    116.0    0.40   116.0     200.0     120.0      86.4      68.7      46.3      40.0    0.000     0.000     0.000     0.000     0.000    0.40     0.00    0.00      0   -9.90   -9.00       26.0       30.0       30.0       30.0       30.0       30.0       30.0       30.0       30.0       30.0       30.0       30.0        0.0        0.0        0.0        0.0        0.0        0.0        0.0        0.0        0.0        0.0        0.0        0.0      0.0       0.2       6.0       6.0       6.0    384.92
    21     1  2008    22     2     355.5     0.0      0.0    0.0    0.0    0.0      0.0      0.0   -9.90      0.7      0.5     63      0.1      0.1   100      0.8     0.6      67      3.5    0.40      0      0      0      0      0    12.3    12.3     50     0.22      0.1      0.1      0.1   100    17.7     0.234    83.6    0.195    1.953     100        4.29    0.000    0.000     355.5    115.5    0.40   115.5     200.0     120.0      88.1      70.1      47.0      40.0    0.000     0.000     0.000     0.000     0.000    0.40     0.00    0.00      0   -9.90   -9.00       25.5       30.0       30.0       30.0       30.0       30.0       30.0       30.0       30.0       30.0       30.0       30.0        0.0        0.0        0.0        0.0        0.0        0.0        0.0        0.0        0.0        0.0        0.0        0.0      0.0       0.8       6.0       7.5       9.0    384.92
    22     1  2008    23     2     355.4     0.0      0.0    0.0    0.0    0.0      0.0      0.0   -9.90      0.1      0.1     61      0.0      0.0   100      0.1     0.1      70     11.5    0.40      0      0      0      0      0    15.0    15.0      0     0.26      0.0      0.0      0.0   100    17.7     0.280    83.8    0.234    2.343     100        5.06    0.000    0.000     355.4    115.4    0.40   115.4     200.0     120.0      86.1      68.4      46.2      40.0    0.000     0.000     0.000     0.000     0.000    0.40     0.00    0.00      0   -9.90   -9.00       25.4       30.0       30.0       30.0       30.0       30.0       30.0       30.0       30.0       30.0       30.0       30.0        0.0        0.0        0.0        0.0        0.0        0.0        0.0        0.0        0.0        0.0        0.0        0.0      0.0       0.1       6.0      15.5      25.0    384.92
    23     1  2008    24     2     355.3     0.0      0.0    0.0    0.0    0.0      0.0      0.0   -9.90      0.0      0.0     60      0.0      0.0   100      0.1     0.0      71      9.7    0.40      0      0      0      0      0    17.9    17.9      0     0.30      0.0      0.0      0.0   100    17.7     0.333    84.0    0.280    2.799     100        5.99    0.000    0.000     355.3    115.3    0.40   115.3     200.0     120.0      85.9      68.3      46.1      40.0    0.000     0.000     0.000     0.000     0.000    0.40     0.00    0.00      0   -9.90   -9.00       25.3       30.0       30.0       30.0       30.0       30.0       30.0       30.0       30.0       30.0       30.0       30.0        0.0        0.0        0.0        0.0        0.0        0.0        0.0        0.0        0.0        0.0        0.0        0.0      0.0       0.1       6.0      13.7      21.5    384.92
    24     1  2008    25     2     355.3     0.0      0.0    0.0    0.0    0.0      0.0      0.0   -9.90      0.0      0.0     60      0.0      0.0   100      0.0     0.0      68      3.7    0.40      0      0      0      0      0    19.1    19.1     44     0.32      0.0      0.0      0.0   100    17.7     0.365    84.1    0.307    3.069     100        6.54    0.000    0.000     355.3    115.3    0.40   115.3     200.0     120.0      85.9      68.2      46.1      40.0    0.000     0.000     0.000     0.000     0.000    0.40     0.00    0.00      0   -9.90   -9.00       25.3       30.0       30.0       30.0       30.0       30.0       30.0       30.0       30.0       30.0       30.0       30.0        0.0        0.0        0.0        0.0        0.0        0.0        0.0        0.0        0.0        0.0        0.0        0.0      0.0       0.0       6.0       7.7       9.5    384.92
    25     1  2008    26     2     355.3     0.0      0.0    0.0    0.0    0.0      0.0      0.0   -9.90      0.0      0.0     60      0.0      0.0   100      0.1     0.1      74     11.5    0.40      0      0      0      0      0    23.4    23.4      0     0.39      0.0      0.0      0.0   100    17.7     0.433    84.2    0.365    3.648     100        7.68    0.000    0.000     355.3    115.3    0.40   115.3     200.0     120.0      86.0      68.3      46.1      40.0    0.000     0.000     0.000     0.000     0.000    0.40     0.00    0.00      0   -9.90   -9.00       25.3       30.0       30.0       30.0       30.0       30.0       30.0       30.0       30.0       30.0       30.0       30.0        0.0        0.0        0.0        0.0        0.0        0.0        0.0        0.0        0.0        0.0        0.0        0.0      0.0       0.1       6.0      15.5      25.0    384.92
    26     1  2008    27     2     355.2     0.0      0.0    0.0    0.0    0.0      0.0      0.0   -9.90      0.0      0.0     60      0.0      0.0   100      0.0     0.0      76      8.2    0.40      0      0      0      0      0    27.1    27.1      0     0.44      0.0      0.0      0.0   100    17.7     0.510    84.3    0.430    4.304     100        9.00    0.000    0.000     355.2    115.2    0.40   115.2     200.0     120.0      85.9      68.2      46.1      40.0    0.000     0.000     0.000     0.000     0.000    0.40     0.00    0.00      0   -9.90   -9.00       25.2       30.0       30.0       30.0       30.0       30.0       30.0       30.0       30.0       30.0       30.0       30.0        0.0        0.0        0.0        0.0        0.0        0.0        0.0        0.0        0.0        0.0        0.0        0.0      0.0       0.0       6.0      12.2      18.3    384.92
    27     1  2008    28     2     355.2     0.0      0.0    0.0    0.0    0.0      0.0      0.0   -9.90      0.0      0.0     59      0.0      0.0   100      0.1     0.0      75      4.9    0.40      0      0      0      0      0    29.6    29.6     18     0.47      0.0      0.0      0.0   100    17.7     0.578    84.4    0.488    4.882     100       10.11    0.000    0.000     355.2    115.2    0.40   115.2     200.0     120.0      85.9      68.3      46.1      40.0    0.000     0.000     0.000     0.000     0.000    0.40     0.00    0.00      0   -9.90   -9.00       25.2       30.0       30.0       30.0       30.0       30.0       30.0       30.0       30.0       30.0       30.0       30.0        0.0        0.0        0.0        0.0        0.0        0.0        0.0        0.0        0.0        0.0        0.0        0.0      0.0       0.1       6.0       8.9      11.8    384.92
    28     1  2008    29     2     355.1     0.0      0.0    0.0    0.0    0.0      0.0      0.0   -9.90      0.0      0.0     59      0.0      0.0   100      0.1     0.1      79      9.6    0.40      0      0      0      0      0    35.1    35.1      0     0.54      0.0      0.0      0.0   100    17.7     0.674    84.5    0.569    5.694     100       11.62    0.000    0.000     355.1    115.1    0.40   115.1     200.0     120.0      86.0      68.3      46.2      40.0    0.000     0.000     0.000     0.000     0.000    0.40     0.00    0.00      0   -9.90   -9.00       25.1       30.0       30.0       30.0       30.0       30.0       30.0       30.0       30.0       30.0       30.0       30.0        0.0        0.0        0.0        0.0        0.0        0.0        0.0        0.0        0.0        0.0        0.0        0.0      0.0       0.1       6.0      13.6      21.3    384.92
    29     1  2008    30     2     355.0     0.0      0.0    0.0    0.0    0.0      0.0      0.0   -9.90      0.1      0.0     59      0.1      0.1   100      0.1     0.1      81      8.0    0.40      0      0      0      0      0    40.4    40.4      0     0.60      0.1      0.1      0.1   100    17.7     0.781    84.6    0.660    6.602     100       13.21    0.000    0.000     355.0    115.0    0.40   115.0     200.0     120.0      86.1      68.4      46.2      40.0    0.000     0.000     0.000     0.000     0.000    0.40     0.00    0.00      0   -9.90   -9.00       25.0       30.0       30.0       30.0       30.0       30.0       30.0       30.0       30.0       30.0       30.0       30.0        0.0        0.0        0.0        0.0        0.0        0.0        0.0        0.0        0.0        0.0        0.0        0.0      0.0       0.1       6.0      12.0      18.0    384.92
    30     1  2008    31     2     354.9     0.0      0.0    0.0    0.0    0.0      0.0      0.0   -9.90      0.0      0.0     58      0.1      0.1   100      0.1     0.1      85     11.5    0.40      0      0      0      0      0    48.5    48.5      0     0.69      0.1      0.1      0.1   100    17.7     0.903    84.6    0.764    7.644     100       14.97    0.000    0.000     354.9    114.9    0.40   114.9     200.0     120.0      86.1      68.4      46.2      40.0    0.000     0.000     0.000     0.000     0.000    0.40     0.00    0.00      0   -9.90   -9.00       24.9       30.0       30.0       30.0       30.0       30.0       30.0       30.0       30.0       30.0       30.0       30.0        0.0        0.0        0.0        0.0        0.0        0.0        0.0        0.0        0.0        0.0        0.0        0.0      0.0       0.1       6.0      15.5      25.0    384.92
    31     1  2008    32     2     354.8     0.0      0.0    0.0    0.0    0.0      0.0      0.0   -9.90      0.0      0.0     57      0.1      0.1   100      0.1     0.1      87     11.5    0.40      0      0      0      0      0    55.1    55.1      0     0.76      0.1      0.1      0.1   100    17.7     1.038    84.7    0.879    8.787     100       16.95    0.000    0.000     354.8    114.8    0.40   114.8     200.0     120.0      86.0      68.3      46.2      40.0    0.000     0.000     0.000     0.000     0.000    0.40     0.00    0.00      0   -9.90   -9.00       24.8       30.0       30.0       30.0       30.0       30.0       30.0       30.0       30.0       30.0       30.0       30.0        0.0        0.0        0.0        0.0        0.0        0.0        0.0        0.0        0.0        0.0        0.0        0.0      0.0       0.1       6.0      15.5      25.0    384.92
     1     2  2008    33     2     354.6     0.0      0.0    0.0    0.0    0.0      0.0      0.0   -9.90      0.1      0.0     57      0.1      0.1   100      0.2     0.2      89     11.5    0.40      0      0      0      0      0    60.5    60.5      0     0.81      0.1      0.1      0.1   100    17.7     1.181    84.7    1.001   10.006     100       18.67    0.000    0.000     354.6    114.6    0.40   114.6     200.0     120.0      86.3      68.6      46.3      40.0    0.000     0.000     0.000     0.000     0.000    0.40     0.00    0.00      0   -9.90   -9.00       24.6       30.0       30.0       30.0       30.0       30.0       30.0       30.0       30.0       30.0       30.0       30.0        0.0        0.0        0.0        0.0        0.0        0.0        0.0        0.0        0.0        0.0        0.0        0.0      0.0       0.2       6.0      15.5      25.0    384.92
     2     2  2008    34     2     354.6     0.0      0.0    0.0    0.0    0.0      0.0      0.0   -9.90      0.0      0.0     56      0.0      0.0   100      0.1     0.0      87      4.7    0.40      0      0      0      0      0    62.4    62.4     21     0.83      0.0      0.0      0.0   100    17.7     1.297    84.7    1.099   10.989     100       20.32    0.000    0.000     354.6    114.6    0.40   114.6     200.0     120.0      85.9      68.3      46.1      40.0    0.000     0.000     0.000     0.000     0.000    0.40     0.00    0.00      0   -9.90   -9.00       24.6       30.0       30.0       30.0       30.0       30.0       30.0       30.0       30.0       30.0       30.0       30.0        0.0        0.0        0.0        0.0        0.0        0.0        0.0        0.0        0.0        0.0        0.0        0.0      0.0       0.1       6.0       8.7      11.4    384.92
     3     2  2008    35     2     354.5     0.0      0.0    0.0    0.0    0.0      0.0      0.0   -9.90      0.0      0.0     55      0.1      0.1   100      0.1     0.1      91     11.5    0.40      0      0      0      0      0    66.4    66.4      0     0.86      0.1      0.1      0.1   100    17.7     1.450    84.8    1.229   12.288     100       22.24    0.000    0.000     354.5    114.5    0.40   114.5     200.0     120.0      86.1      68.4      46.2      40.0    0.000     0.000     0.000     0.000     0.000    0.40     0.00    0.00      0   -9.90   -9.00       24.5       30.0       30.0       30.0       30.0       30.0       30.0       30.0       30.0       30.0       30.0       30.0        0.0        0.0        0.0        0.0        0.0        0.0        0.0        0.0        0.0        0.0        0.0        0.0      0.0       0.1       6.0      15.5      25.0    384.92
     4     2  2008    36     2     354.5     0.0      0.0    0.0    0.0    0.0      0.0      0.0   -9.90      0.0      0.0     55      0.0      0.0   100      0.0     0.0      71      2.0    0.40      0      0      0      0      0    67.1    67.1     86     0.87      0.0      0.0      0.0   100    17.7     1.472    84.8    1.248   12.477     100       22.57    0.000    0.000     354.5    114.5    0.40   114.5     200.0     120.0      85.8      68.2      46.1      40.0    0.000     0.000     0.000     0.000     0.000    0.40     0.00    0.00      0   -9.90   -9.00       24.5       30.0       30.0       30.0       30.0       30.0       30.0       30.0       30.0       30.0       30.0       30.0        0.0        0.0        0.0        0.0        0.0        0.0        0.0        0.0        0.0        0.0        0.0        0.0      0.0       0.0       6.0       6.0       6.0    384.92
     5     2  2008    37     2     354.5     0.0      0.0    0.0    0.0    0.0      0.0      0.0   -9.90      0.0      0.0     55      0.0      0.0   100      0.0     0.0      74      2.2    0.40      0      0      0      0      0    67.7    67.7     82     0.88      0.0      0.0      0.0   100    17.7     1.500    84.8    1.272   12.719     100       22.96    0.000    0.000     354.5    114.5    0.40   114.5     200.0     120.0      85.9      68.2      46.1      40.0    0.000     0.000     0.000     0.000     0.000    0.40     0.00    0.00      0   -9.90   -9.00       24.5       30.0       30.0       30.0       30.0       30.0       30.0       30.0       30.0       30.0       30.0       30.0        0.0        0.0        0.0        0.0        0.0        0.0        0.0        0.0        0.0        0.0        0.0        0.0      0.0       0.0       6.0       6.2       6.5    384.92
     6     2  2008    38     2     354.4     0.0      0.0    0.0    0.0    0.0      0.0      0.0   -9.90      0.0      0.0     55      0.0      0.0   100      0.0     0.0      90      5.2    0.40      0      0      0      0      0    69.2    69.2     13     0.89      0.0      0.0      0.0   100    17.7     1.636    84.8    1.388   13.877     100       24.89    0.000    0.000     354.4    114.4    0.40   114.4     200.0     120.0      85.9      68.2      46.1      40.0    0.000     0.000     0.000     0.000     0.000    0.40     0.00    0.00      0   -9.90   -9.00       24.4       30.0       30.0       30.0       30.0       30.0       30.0       30.0       30.0       30.0       30.0       30.0        0.0        0.0        0.0        0.0        0.0        0.0        0.0        0.0        0.0        0.0        0.0        0.0      0.0       0.0       6.0       9.2      12.5    384.92
     7     2  2008    39     2     354.3     0.0      0.0    0.0    0.0    0.0      0.0      0.0   -9.90      0.0      0.0     54      0.1      0.1   100      0.1     0.1      92      6.9    0.40      0      0      0      0      0    70.9    70.9      2     0.90      0.1      0.1      0.1   100    17.7     1.792    84.8    1.520   15.202     100       26.84    0.000    0.000     354.3    114.3    0.40   114.3     200.0     120.0      86.0      68.4      46.2      40.0    0.000     0.000     0.000     0.000     0.000    0.40     0.00    0.00      0   -9.90   -9.00       24.3       30.0       30.0       30.0       30.0       30.0       30.0       30.0       30.0       30.0       30.0       30.0        0.0        0.0        0.0        0.0        0.0        0.0        0.0        0.0        0.0        0.0        0.0        0.0      0.0       0.1       6.0      10.9      15.8    384.92
     8     2  2008    40     2     354.2     0.0      0.0    0.0    0.0    0.0      0.0      0.0   -9.90      0.0      0.0     54      0.1      0.1   100      0.1     0.1      93      8.6    0.40      0      0      0      0      0    72.8    72.8      0     0.92      0.1      0.1      0.1   100    17.7     1.955    84.8    1.658   16.582     100       28.81    0.000    0.000     354.2    114.2    0.40   114.2     200.0     120.0      86.0      68.4      46.2      40.0    0.000     0.000     0.000     0.000     0.000    0.40     0.00    0.00      0   -9.90   -9.00       24.2       30.0       30.0       30.0       30.0       30.0       30.0       30.0       30.0       30.0       30.0       30.0        0.0        0.0        0.0        0.0        0.0        0.0        0.0        0.0        0.0        0.0        0.0        0.0      0.0       0.1       6.0      12.6      19.2    384.92
     9     2  2008    41     2     354.2     0.0      0.0    0.0    0.0    0.0      0.0      0.0   -9.90      0.0      0.0     53      0.0      0.0   100      0.0     0.0      85      3.2    0.40      0      0      0      0      0    73.5    73.5     60     0.92      0.0      0.0      0.0   100    17.7     2.020    84.8    1.713   17.135     100       29.58    0.000    0.000     354.2    114.2    0.40   114.2     200.0     120.0      86.0      68.3      46.2      40.0    0.000     0.000     0.000     0.000     0.000    0.40     0.00    0.00      0   -9.90   -9.00       24.2       30.0       30.0       30.0       30.0       30.0       30.0       30.0       30.0       30.0       30.0       30.0        0.0        0.0        0.0        0.0        0.0        0.0        0.0        0.0        0.0        0.0        0.0        0.0      0.0       0.1       6.0       7.2       8.3    384.92
    10     2  2008    42     2     354.2     0.0      0.0    0.0    0.0    0.0      0.0      0.0   -9.90      0.0      0.0     53      0.0      0.0   100      0.0     0.0      91      4.4    0.40      0      0      0      0      0    74.3    74.3     27     0.93      0.0      0.0      0.0   100    17.7     2.140    84.8    1.816   18.161     100       31.15    0.000    0.000     354.2    114.2    0.40   114.2     200.0     120.0      85.9      68.3      46.1      40.0    0.000     0.000     0.000     0.000     0.000    0.40     0.00    0.00      0   -9.90   -9.00       24.2       30.0       30.0       30.0       30.0       30.0       30.0       30.0       30.0       30.0       30.0       30.0        0.0        0.0        0.0        0.0        0.0        0.0        0.0        0.0        0.0        0.0        0.0        0.0      0.0       0.1       6.0       8.4      10.9    384.92
    11     2  2008    43     2     354.1     0.0      0.0    0.0    0.0    0.0      0.0      0.0   -9.90      0.0      0.0     53      0.1      0.1   100      0.1     0.1      93      8.1    0.40      0      0      0      0      0    75.6    75.6      0     0.94      0.1      0.1      0.1   100    17.7     2.307    84.9    1.957   19.573     100       33.10    0.000    0.000     354.1    114.1    0.40   114.1     200.0     120.0      86.0      68.3      46.2      40.0    0.000     0.000     0.000     0.000     0.000    0.40     0.00    0.00      0   -9.90   -9.00       24.1       30.0       30.0       30.0       30.0       30.0       30.0       30.0       30.0       30.0       30.0       30.0        0.0        0.0        0.0        0.0        0.0        0.0        0.0        0.0        0.0        0.0        0.0        0.0      0.0       0.1       6.0      12.1      18.2    384.92
    12     2  2008    44     2     354.0     0.0      0.0    0.0    0.0    0.0      0.0      0.0   -9.90      0.0      0.0     52      0.1      0.1   100      0.1     0.1      88      3.5    0.40      0      0      0      0      0    76.1    76.1     51     0.94      0.1      0.1      0.1   100    17.7     2.388    84.9    2.027   20.266     100       33.87    0.000    0.000     354.0    114.0    0.40   114.0     200.0     120.0      86.1      68.5      46.2      40.0    0.000     0.000     0.000     0.000     0.000    0.40     0.00    0.00      0   -9.90   -9.00       24.0       30.0       30.0       30.0       30.0       30.0       30.0       30.0       30.0       30.0       30.0       30.0        0.0        0.0        0.0        0.0        0.0        0.0        0.0        0.0        0.0        0.0        0.0        0.0      0.0       0.1       6.0       7.5       9.0    384.92
    13     2  2008    45     2     353.8     0.0      0.0    0.0    0.0    0.0      0.0      0.0   -9.90      0.0      0.0     52      0.2      0.2   100      0.2     0.2      94     11.5    0.40      0      0      0      0      0    77.6    77.6      0     0.96      0.2      0.2      0.2   100    17.7     2.557    84.9    2.170   21.702     100       35.07    0.000    0.000     353.8    113.8    0.40   113.8     200.0     120.0      86.3      68.6      46.3      40.0    0.000     0.000     0.000     0.000     0.000    0.40     0.00    0.00      0   -9.90   -9.00       23.8       30.0       30.0       30.0       30.0       30.0       30.0       30.0       30.0       30.0       30.0       30.0        0.0        0.0        0.0        0.0        0.0        0.0        0.0        0.0        0.0        0.0        0.0        0.0      0.0       0.2       6.0      15.5      25.0    384.92
    14     2  2008    46     2     353.7     0.0      0.0    0.0    0.0    0.0      0.0      0.0   -9.90      0.0      0.0     51      0.1      0.1   100      0.1     0.1      94     11.5    0.40      0      0      0      0      0    78.8    78.8      0     0.97      0.1      0.1      0.1   100    17.7     2.728    84.9    2.315   23.153     100       36.68    0.000    0.000     353.7    113.7    0.40   113.7     200.0     120.0      86.1      68.4      46.2      40.0    0.000     0.000     0.000     0.000     0.000    0.40     0.00    0.00      0   -9.90   -9.00       23.7       30.0       30.0       30.0       30.0       30.0       30.0       30.0       30.0       30.0       30.0       30.0        0.0        0.0        0.0        0.0        0.0        0.0        0.0        0.0        0.0        0.0        0.0        0.0      0.0       0.1       6.0      15.5      25.0    384.92
    15     2  2008    47     2     353.6     0.0      0.0    0.0    0.0    0.0      0.0      0.0   -9.90      0.0      0.0     50      0.1      0.1   100      0.1     0.1      94     11.5    0.40      0      0      0      0      0    79.8    79.8      0     0.97      0.1      0.1      0.1   100    17.7     2.900    84.9    2.461   24.615     100       38.30    0.000    0.000     353.6    113.6    0.40   113.6     200.0     120.0      86.1      68.4      46.2      40.0    0.000     0.000     0.000     0.000     0.000    0.40     0.00    0.00      0   -9.90   -9.00       23.6       30.0       30.0       30.0       30.0       30.0       30.0       30.0       30.0       30.0       30.0       30.0        0.0        0.0        0.0        0.0        0.0        0.0        0.0        0.0        0.0        0.0        0.0        0.0      0.0       0.1       6.0      15.5      25.0    384.92
    16     2  2008    48     2     353.5     0.0      0.0    0.0    0.0    0.0      0.0      0.0   -9.90      0.0      0.0     50      0.1      0.1   100      0.1     0.1      95     11.5    0.40      0      0      0      0      0    80.6    80.6      0     0.98      0.1      0.1      0.1   100    17.7     3.073    84.9    2.609   26.086     100       39.88    0.000    0.000     353.5    113.5    0.40   113.5     200.0     120.0      86.1      68.4      46.2      40.0    0.000     0.000     0.000     0.000     0.000    0.40     0.00    0.00      0   -9.90   -9.00       23.5       30.0       30.0       30.0       30.0       30.0       30.0       30.0       30.0       30.0       30.0       30.0        0.0        0.0        0.0        0.0        0.0        0.0        0.0        0.0        0.0        0.0        0.0        0.0      0.0       0.1       6.0      15.5      25.0    384.92
    17     2  2008    49     2     353.3     0.0      0.0    0.0    0.0    0.0      0.0      0.0   -9.90      0.0      0.0     49      0.2      0.2   100      0.2     0.2      95      7.6    0.40      0      0      0      0      0    81.1    81.1      0     0.98      0.2      0.2      0.2   100    17.7     3.247    84.9    2.756   27.562     100       41.03    0.000    0.000     353.3    113.3    0.40   113.3     200.0     120.0      86.3      68.6      46.3      40.0    0.000     0.000     0.000     0.000     0.000    0.40     0.00    0.00      0   -9.90   -9.00       23.3       30.0       30.0       30.0       30.0       30.0       30.0       30.0       30.0       30.0       30.0       30.0        0.0        0.0        0.0        0.0        0.0        0.0        0.0        0.0        0.0        0.0        0.0        0.0      0.0       0.2       6.0      11.6      17.1    384.92
    18     2  2008    50     2     353.0     0.0      0.0    0.0    0.0    0.0      0.0      0.0   -9.90      0.0      0.0     48      0.3      0.3   100      0.3     0.3      95     11.5    0.40      0      0      0      0      0    81.6    81.6      0     0.99      0.3      0.3      0.3   100    17.7     3.421    84.9    2.904   29.044     100       41.32    0.000    0.000     353.0    113.0    0.40   113.0     200.0     120.0      86.6      68.9      46.4      40.0    0.000     0.000     0.000     0.000     0.000    0.40     0.00    0.00      0   -9.90   -9.00       23.0       30.0       30.0       30.0       30.0       30.0       30.0       30.0       30.0       30.0       30.0       30.0        0.0        0.0        0.0        0.0        0.0        0.0        0.0        0.0        0.0        0.0        0.0        0.0      0.0       0.3       6.0      15.5      25.0    384.92
    19     2  2008    51     2     352.8     0.0      0.0    0.0    0.0    0.0      0.0      0.0   -9.90      0.0      0.0     46      0.1      0.1   100      0.1     0.1      95     11.5    0.40      0      0      0      0      0    82.1    82.1      0     0.99      0.1      0.1      0.1   100    17.7     3.596    84.9    3.053   30.532     100       42.68    0.000    0.000     352.8    112.8    0.40   112.8     200.0     120.0      86.1      68.4      46.2      40.0    0.000     0.000     0.000     0.000     0.000    0.40     0.00    0.00      0   -9.90   -9.00       22.8       30.0       30.0       30.0       30.0       30.0       30.0       30.0       30.0       30.0       30.0       30.0        0.0        0.0        0.0        0.0        0.0        0.0        0.0        0.0        0.0        0.0        0.0        0.0      0.0       0.1       6.0      15.5      25.0    384.92
    20     2  2008    52     2     352.8     0.0      0.0    0.0    0.0    0.0      0.0      0.0   -9.90      0.0      0.0     46      0.1      0.1   100      0.1     0.1      95     11.3    0.40      0      0      0      0      0    82.4    82.4      0     0.99      0.1      0.1      0.1   100    17.7     3.771    84.9    3.202   32.023     100       44.19    0.000    0.000     352.8    112.8    0.40   112.8     200.0     120.0      86.0      68.4      46.2      40.0    0.000     0.000     0.000     0.000     0.000    0.40     0.00    0.00      0   -9.90   -9.00       22.8       30.0       30.0       30.0       30.0       30.0       30.0       30.0       30.0       30.0       30.0       30.0        0.0        0.0        0.0        0.0        0.0        0.0        0.0        0.0        0.0        0.0        0.0        0.0      0.0       0.1       6.0      15.3      24.5    384.92
    21     2  2008    53     2     352.6     0.0      0.0    0.0    0.0    0.0      0.0      0.0   -9.90      0.0      0.0     45      0.1      0.1   100      0.1     0.1      95     10.7    0.40      0      0      0      0      0    82.7    82.7      0     0.99      0.1      0.1      0.1   100    17.7     3.947    84.9    3.352   33.517     100       45.60    0.000    0.000     352.6    112.6    0.40   112.6     200.0     120.0      86.1      68.4      46.2      40.0    0.000     0.000     0.000     0.000     0.000    0.40     0.00    0.00      0   -9.90   -9.00       22.6       30.0       30.0       30.0       30.0       30.0       30.0       30.0       30.0       30.0       30.0       30.0        0.0        0.0        0.0        0.0        0.0        0.0        0.0        0.0        0.0        0.0        0.0        0.0      0.0       0.1       6.0      14.7      23.3    384.92
    22     2  2008    54     2     352.5     0.0      0.0    0.0    0.0    0.0      0.0      0.0   -9.90      0.0      0.0     45      0.1      0.1   100      0.2     0.1      95     11.5    0.40      0      0      0      0      0    82.9    82.9      0     1.00      0.1      0.1      0.1   100    17.7     4.123    84.9    3.501   35.014     100       46.71    0.000    0.000     352.5    112.5    0.40   112.5     200.0     120.0      86.2      68.5      46.2      40.0    0.000     0.000     0.000     0.000     0.000    0.40     0.00    0.00      0   -9.90   -9.00       22.5       30.0       30.0       30.0       30.0       30.0       30.0       30.0       30.0       30.0       30.0       30.0        0.0        0.0        0.0        0.0        0.0        0.0        0.0        0.0        0.0        0.0        0.0        0.0      0.0       0.1       6.0      15.5      25.0    384.92
    23     2  2008    55     2     352.3     0.0      0.0    0.0    0.0    0.0      0.0      0.0   -9.90      0.0      0.0     44      0.2      0.2   100      0.2     0.2      95     11.5    0.40      0      0      0      0      0    83.0    83.0      0     1.00      0.2      0.2      0.2   100    17.7     4.299    84.9    3.651   36.512     100       47.39    0.000    0.000     352.3    112.3    0.40   112.3     200.0     120.0      86.3      68.6      46.3      40.0    0.000     0.000     0.000     0.000     0.000    0.40     0.00    0.00      0   -9.90   -9.00       22.3       30.0       30.0       30.0       30.0       30.0       30.0       30.0       30.0       30.0       30.0       30.0        0.0        0.0        0.0        0.0        0.0        0.0        0.0        0.0        0.0        0.0        0.0        0.0      0.0       0.2       6.0      15.5      25.0    384.92
    24     2  2008    56     2     352.1     0.0      0.0    0.0    0.0    0.0      0.0      0.0   -9.90      0.0      0.0     43      0.2      0.2   100      0.2     0.2      95     11.5    0.40      0      0      0      0      0    83.1    83.1      0     1.00      0.2      0.2      0.2   100    17.7     4.476    84.9    3.801   38.011     100       47.91    0.000    0.000     352.1    112.1    0.40   112.1     200.0     120.0      86.4      68.7      46.3      40.0    0.000     0.000     0.000     0.000     0.000    0.40     0.00    0.00      0   -9.90   -9.00       22.1       30.0       30.0       30.0       30.0       30.0       30.0       30.0       30.0       30.0       30.0       30.0        0.0        0.0        0.0        0.0        0.0        0.0        0.0        0.0        0.0        0.0        0.0        0.0      0.0       0.2       6.0      15.5      25.0    384.92
    25     2  2008    57     2     352.0     0.0      0.0    0.0    0.0    0.0      0.0      0.0   -9.90      0.2      0.1     42      0.0      0.0   100      0.2     0.1      42     11.5    0.40      0     -9      0      0     -9     0.0     0.0      0    -9.00      0.0      0.0      0.0   100    17.7     4.476    84.9    3.801   38.011     100       47.91    0.000    0.000     352.0    112.0    0.40   112.0     200.0     120.0      86.4      68.6      46.3      40.0    0.000     0.000     0.000     0.000     0.000    0.40     0.00    0.00      0   -9.90   -9.00       22.0       30.0       30.0       30.0       30.0       30.0       30.0       30.0       30.0       30.0       30.0       30.0        0.0        0.0        0.0        0.0        0.0        0.0        0.0        0.0        0.0        0.0        0.0        0.0      0.0       0.2       6.0      15.5      25.0    384.92
    26     2  2008    -9     0     351.9     0.0      0.0    0.0    0.0    0.0      0.0      0.0   -9.90      0.2      0.1     41      0.0      0.0   100      0.2     0.1      41     10.4    0.40      0     -9      0      0     -9     0.0     0.0      0    -9.00      0.0      0.0      0.0   100    17.7     4.476    84.9    3.801   38.011     100       47.91    0.000    0.000     351.9    111.9    0.40   111.9     200.0     120.0      86.4      68.6      46.3      40.0    0.000     0.000     0.000     0.000     0.000    0.40     0.00    0.00      0   -9.90   -9.00       21.9       30.0       30.0       30.0       30.0       30.0       30.0       30.0       30.0       30.0       30.0       30.0        0.0        0.0        0.0        0.0        0.0        0.0        0.0        0.0        0.0        0.0        0.0        0.0      0.0       0.2       6.0      14.4      22.8    384.92
    27     2  2008    -9     0     351.9     0.0      0.0    0.0    0.0    0.0      0.0      0.0   -9.90      0.1      0.1     41      0.0      0.0   100      0.1     0.1      41     10.6    0.40      0     -9      0      0     -9     0.0     0.0      0    -9.00      0.0      0.0      0.0   100    17.7     4.476    84.9    3.801   38.011     100       47.91    0.000    0.000     351.9    111.9    0.40   111.9     200.0     120.0      86.4      68.4      46.3      40.0    0.000     0.000     0.000     0.000     0.000    0.40     0.00    0.00      0   -9.90   -9.00       21.9       30.0       30.0       30.0       30.0       30.0       30.0       30.0       30.0       30.0       30.0       30.0        0.0        0.0        0.0        0.0        0.0        0.0        0.0        0.0        0.0        0.0        0.0        0.0      0.0       0.1       6.0      14.6      23.1    384.92
    28     2  2008    -9     0     351.8     0.0      0.0    0.0    0.0    0.0      0.0      0.0   -9.90      0.2      0.1     41      0.0      0.0   100      0.2     0.1      41     11.5    0.40      0     -9      0      0     -9     0.0     0.0      0    -9.00      0.0      0.0      0.0   100    17.7     4.476    84.9    3.801   38.011     100       47.91    0.000    0.000     351.8    111.8    0.40   111.8     200.0     120.0      86.4      68.5      46.3      40.0    0.000     0.000     0.000     0.000     0.000    0.40     0.00    0.00      0   -9.90   -9.00       21.8       30.0       30.0       30.0       30.0       30.0       30.0       30.0       30.0       30.0       30.0       30.0        0.0        0.0        0.0        0.0        0.0        0.0        0.0        0.0        0.0        0.0        0.0        0.0      0.0       0.2       6.0      15.5      25.0    384.92
    29     2  2008    -9     0     351.7     0.0      0.0    0.0    0.0    0.0      0.0      0.0   -9.90      0.1      0.0     41      0.0      0.0   100      0.1     0.0      41      3.5    0.40      0     -9      0      0     -9     0.0     0.0      0    -9.00      0.0      0.0      0.0   100    17.7     4.476    84.9    3.801   38.011     100       47.91    0.000    0.000     351.7    111.7    0.40   111.7     200.0     120.0      86.4      68.4      46.3      40.0    0.000     0.000     0.000     0.000     0.000    0.40     0.00    0.00      0   -9.90   -9.00       21.7       30.0       30.0       30.0       30.0       30.0       30.0       30.0       30.0       30.0       30.0       30.0        0.0        0.0        0.0        0.0        0.0        0.0        0.0        0.0        0.0        0.0        0.0        0.0      0.0       0.1       6.0       7.5       9.1    384.92
     1     3  2008    -9     0     351.7     0.0      0.0    0.0    0.0    0.0      0.0      0.0   -9.90      0.1      0.1     40      0.0      0.0   100      0.1     0.1      40      8.5    0.40      0     -9      0      0     -9     0.0     0.0      0    -9.00      0.0      0.0      0.0   100    17.7     4.476    84.9    3.801   38.011     100       47.91    0.000    0.000     351.7    111.7    0.40   111.7     200.0     120.0      86.4      68.5      46.3      40.0    0.000     0.000     0.000     0.000     0.000    0.40     0.00    0.00      0   -9.90   -9.00       21.7       30.0       30.0       30.0       30.0       30.0       30.0       30.0       30.0       30.0       30.0       30.0        0.0        0.0        0.0        0.0        0.0        0.0        0.0        0.0        0.0        0.0        0.0        0.0      0.0       0.1       6.0      12.5      19.1    384.92
     2     3  2008    -9     0     351.5     0.0      0.0    0.0    0.0    0.0      0.0      0.0   -9.90      0.3      0.1     40      0.0      0.0   100      0.3     0.1      40     11.5    0.40      0     -9      0      0     -9     0.0     0.0      0    -9.00      0.0      0.0      0.0   100    17.7     4.476    84.9    3.801   38.011     100       47.91    0.000    0.000     351.5    111.5    0.40   111.5     200.0     120.0      86.4      68.9      46.3      40.0    0.000     0.000     0.000     0.000     0.000    0.40     0.00    0.00      0   -9.90   -9.00       21.5       30.0       30.0       30.0       30.0       30.0       30.0       30.0       30.0       30.0       30.0       30.0        0.0        0.0        0.0        0.0        0.0        0.0        0.0        0.0        0.0        0.0        0.0        0.0      0.0       0.3       6.0      15.5      25.0    384.92
     3     3  2008    -9     0     351.4     0.0      0.0    0.0    0.0    0.0      0.0      0.0   -9.90      0.5      0.2     39      0.0      0.0   100      0.5     0.2      39     11.5    0.40      0     -9      0      0     -9     0.0     0.0      0    -9.00      0.0      0.0      0.0   100    17.7     4.476    84.9    3.801   38.011     100       47.91    0.000    0.000     351.4    111.4    0.40   111.4     200.0     120.0      86.4      69.2      46.3      40.0    0.000     0.000     0.000     0.000     0.000    0.40     0.00    0.00      0   -9.90   -9.00       21.4       30.0       30.0       30.0       30.0       30.0       30.0       30.0       30.0       30.0       30.0       30.0        0.0        0.0        0.0        0.0        0.0        0.0        0.0        0.0        0.0        0.0        0.0        0.0      0.0       0.4       6.0      15.5      25.0    384.92
     4     3  2008    -9     0     351.3     0.0      0.0    0.0    0.0    0.0      0.0      0.0   -9.90      0.2      0.1     39      0.0      0.0   100      0.2     0.1      39      7.4    0.40      0     -9      0      0     -9     0.0     0.0      0    -9.00      0.0      0.0      0.0   100    17.7     4.476    84.9    3.801   38.011     100       47.91    0.000    0.000     351.3    111.3    0.40   111.3     200.0     120.0      86.4      68.6      46.3      40.0    0.000     0.000     0.000     0.000     0.000    0.40     0.00    0.00      0   -9.90   -9.00       21.3       30.0       30.0       30.0       30.0       30.0       30.0       30.0       30.0       30.0       30.0       30.0        0.0        0.0        0.0        0.0        0.0        0.0        0.0        0.0        0.0        0.0        0.0        0.0      0.0       0.2       6.0      11.4      16.9    384.92
     5     3  2008    -9     0     351.0     0.0      0.0    0.0    0.0    0.0      0.0      0.0   -9.90      0.7      0.2     38      0.0      0.0   100      0.7     0.2      38     11.5    0.40      0     -9      0      0     -9     0.0     0.0      0    -9.00      0.0      0.0      0.0   100    17.7     4.476    84.9    3.801   38.011     100       47.91    0.000    0.000     351.0    111.0    0.40   111.0     200.0     120.0      86.4      69.6      46.3      40.0    0.000     0.000     0.000     0.000     0.000    0.40     0.00    0.00      0   -9.90   -9.00       21.0       30.0       30.0       30.0       30.0       30.0       30.0       30.0       30.0       30.0       30.0       30.0        0.0        0.0        0.0        0.0        0.0        0.0        0.0        0.0        0.0        0.0        0.0        0.0      0.0       0.6       6.0      15.5      25.0    384.92
     6     3  2008    -9     0     350.7     0.0      0.0    0.0    0.0    0.0      0.0      0.0   -9.90      1.0      0.4     37      0.0      0.0   100      1.0     0.4      37     11.5    0.40      0     -9      0      0     -9     0.0     0.0      0    -9.00      0.0      0.0      0.0   100    17.7     4.476    84.9    3.801   38.011     100       47.91    0.000    0.000     350.7    110.7    0.40   110.7     200.0     120.0      86.4      70.2      46.3      40.0    0.000     0.000     0.000     0.000     0.000    0.40     0.00    0.00      0   -9.90   -9.00       20.7       30.0       30.0       30.0       30.0       30.0       30.0       30.0       30.0       30.0       30.0       30.0        0.0        0.0        0.0        0.0        0.0        0.0        0.0        0.0        0.0        0.0        0.0        0.0      0.0       0.9       6.0      15.5      25.0    384.92
     7     3  2008    -9     0     350.3     0.0      0.0    0.0    0.0    0.0      0.0      0.0   -9.90      1.1      0.4     35      0.0      0.0   100      1.1     0.4      35      5.4    0.40      0     -9      0      0     -9     0.0     0.0      0    -9.00      0.0      0.0      0.0   100    17.7     4.476    84.9    3.801   38.011     100       47.91    0.000    0.000     350.3    110.3    0.40   110.3     200.0     120.0      86.4      70.5      46.3      40.0    0.000     0.000     0.000     0.000     0.000    0.40     0.00    0.00      0   -9.90   -9.00       20.3       30.0       30.0       30.0       30.0       30.0       30.0       30.0       30.0       30.0       30.0       30.0        0.0        0.0        0.0        0.0        0.0        0.0        0.0        0.0        0.0        0.0        0.0        0.0      0.0       1.0       6.0       9.4      12.8    384.92
     8     3  2008    -9     0     350.2     0.0      0.0    0.0    0.0    0.0      0.0      0.0   -9.90      0.2      0.1     34      0.0      0.0   100      0.2     0.1      34      9.5    0.40      0     -9      0      0     -9     0.0     0.0      0    -9.00      0.0      0.0      0.0   100    17.7     4.476    84.9    3.801   38.011     100       47.91    0.000    0.000     350.2    110.2    0.40   110.2     200.0     120.0      86.4      68.6      46.3      40.0    0.000     0.000     0.000     0.000     0.000    0.40     0.00    0.00      0   -9.90   -9.00       20.2       30.0       30.0       30.0       30.0       30.0       30.0       30.0       30.0       30.0       30.0       30.0        0.0        0.0        0.0        0.0        0.0        0.0        0.0        0.0        0.0        0.0        0.0        0.0      0.0       0.2       6.0      13.5      21.0    384.92
     9     3  2008    -9     0     350.2     0.0      0.0    0.0    0.0    0.0      0.0      0.0   -9.90      0.1      0.0     34      0.0      0.0   100      0.1     0.0      34     11.5    0.40      0     -9      0      0     -9     0.0     0.0      0    -9.00      0.0      0.0      0.0   100    17.7     4.476    84.9    3.801   38.011     100       47.91    0.000    0.000     350.2    110.2    0.40   110.2     200.0     120.0      86.4      68.4      46.3      40.0    0.000     0.000     0.000     0.000     0.000    0.40     0.00    0.00      0   -9.90   -9.00       20.2       30.0       30.0       30.0       30.0       30.0       30.0       30.0       30.0       30.0       30.0       30.0        0.0        0.0        0.0        0.0        0.0        0.0        0.0        0.0        0.0        0.0        0.0        0.0      0.0       0.1       6.0      15.5      25.0    384.92
    10     3  2008    -9     0     350.1     0.0      0.0    0.0    0.0    0.0      0.0      0.0   -9.90      0.2      0.1     34      0.0      0.0   100      0.2     0.1      34     11.5    0.40      0     -9      0      0     -9     0.0     0.0      0    -9.00      0.0      0.0      0.0   100    17.7     4.476    84.9    3.801   38.011     100       47.91    0.000    0.000     350.1    110.1    0.40   110.1     200.0     120.0      86.4      68.7      46.3      40.0    0.000     0.000     0.000     0.000     0.000    0.40     0.00    0.00      0   -9.90   -9.00       20.1       30.0       30.0       30.0       30.0       30.0       30.0       30.0       30.0       30.0       30.0       30.0        0.0        0.0        0.0        0.0        0.0        0.0        0.0        0.0        0.0        0.0        0.0        0.0      0.0       0.2       6.0      15.5      25.0    384.92
    11     3  2008    -9     0     350.0     0.0      0.0    0.0    0.0    0.0      0.0      0.0   -9.90      0.2      0.1     34      0.0      0.0   100      0.2     0.1      34     11.5    0.40      0     -9      0      0     -9     0.0     0.0      0    -9.00      0.0      0.0      0.0   100    17.7     4.476    84.9    3.801   38.011     100       47.91    0.000    0.000     350.0    110.0    0.40   110.0     200.0     120.0      86.4      68.5      46.3      40.0    0.000     0.000     0.000     0.000     0.000    0.40     0.00    0.00      0   -9.90   -9.00       20.0       30.0       30.0       30.0       30.0       30.0       30.0       30.0       30.0       30.0       30.0       30.0        0.0        0.0        0.0        0.0        0.0        0.0        0.0        0.0        0.0        0.0        0.0        0.0      0.0       0.1       6.0      15.5      25.0    384.92
    12     3  2008    -9     0     350.0     0.0      0.0    0.0    0.0    0.0      0.0      0.0   -9.90      0.2      0.1     33      0.0      0.0   100      0.2     0.1      33     11.5    0.40      0     -9      0      0     -9     0.0     0.0      0    -9.00      0.0      0.0      0.0   100    17.7     4.476    84.9    3.801   38.011     100       47.91    0.000    0.000     350.0    110.0    0.40   110.0     200.0     120.0      86.4      68.7      46.3      40.0    0.000     0.000     0.000     0.000     0.000    0.40     0.00    0.00      0   -9.90   -9.00       20.0       30.0       30.0       30.0       30.0       30.0       30.0       30.0       30.0       30.0       30.0       30.0        0.0        0.0        0.0        0.0        0.0        0.0        0.0        0.0        0.0        0.0        0.0        0.0      0.0       0.2       6.0      15.5      25.0    384.92
    13     3  2008    -9     0     349.9     0.0      0.0    0.0    0.0    0.0      0.0      0.0   -9.90      0.1      0.0     33      0.0      0.0   100      0.1     0.0      33     10.2    0.40      0     -9      0      0     -9     0.0     0.0      0    -9.00      0.0      0.0      0.0   100    17.7     4.476    84.9    3.801   38.011     100       47.91    0.000    0.000     349.9    109.9    0.40   109.9     200.0     120.0      86.4      68.5      46.3      40.0    0.000     0.000     0.000     0.000     0.000    0.40     0.00    0.00      0   -9.90   -9.00       19.9       30.0       30.0       30.0       30.0       30.0       30.0       30.0       30.0       30.0       30.0       30.0        0.0        0.0        0.0        0.0        0.0        0.0        0.0        0.0        0.0        0.0        0.0        0.0      0.0       0.1       6.0      14.2      22.5    384.92
    14     3  2008    -9     0     349.9     0.0      0.0    0.0    0.0    0.0      0.0      0.0   -9.90      0.1      0.0     33      0.0      0.0   100      0.1     0.0      33      2.9    0.40      0     -9      0      0     -9     0.0     0.0      0    -9.00      0.0      0.0      0.0   100    17.7     4.476    84.9    3.801   38.011     100       47.91    0.000    0.000     349.9    109.9    0.40   109.9     200.0     120.0      86.4      68.3      46.3      40.0    0.000     0.000     0.000     0.000     0.000    0.40     0.00    0.00      0   -9.90   -9.00       19.9       30.0       30.0       30.0       30.0       30.0       30.0       30.0       30.0       30.0       30.0       30.0        0.0        0.0        0.0        0.0        0.0        0.0        0.0        0.0        0.0        0.0        0.0        0.0      0.0       0.1       6.0       6.9       7.9    384.92
    15     3  2008    -9     0     349.8     0.0      0.0    0.0    0.0    0.0      0.0      0.0   -9.90      0.2      0.1     33      0.0      0.0   100      0.2     0.1      33     11.5    0.40      0     -9      0      0     -9     0.0     0.0      0    -9.00      0.0      0.0      0.0   100    17.7     4.476    84.9    3.801   38.011     100       47.91    0.000    0.000     349.8    109.8    0.40   109.8     200.0     120.0      86.4      68.6      46.3      40.0    0.000     0.000     0.000     0.000     0.000    0.40     0.00    0.00      0   -9.90   -9.00       19.8       30.0       30.0       30.0       30.0       30.0       30.0       30.0       30.0       30.0       30.0       30.0        0.0        0.0        0.0        0.0        0.0        0.0        0.0        0.0        0.0        0.0        0.0        0.0      0.0       0.2       6.0      15.5      25.0    384.92
    16     3  2008    -9     0     349.8     0.0      0.0    0.0    0.0    0.0      0.0      0.0   -9.90      0.2      0.1     33      0.0      0.0   100      0.2     0.1      33     11.5    0.40      0     -9      0      0     -9     0.0     0.0      0    -9.00      0.0      0.0      0.0   100    17.7     4.476    84.9    3.801   38.011     100       47.91    0.000    0.000     349.8    109.8    0.40   109.8     200.0     120.0      86.4      68.5      46.3      40.0    0.000     0.000     0.000     0.000     0.000    0.40     0.00    0.00      0   -9.90   -9.00       19.8       30.0       30.0       30.0       30.0       30.0       30.0       30.0       30.0       30.0       30.0       30.0        0.0        0.0        0.0        0.0        0.0        0.0        0.0        0.0        0.0        0.0        0.0        0.0      0.0       0.1       6.0      15.5      25.0    384.92
    17     3  2008    -9     0     349.7     0.0      0.0    0.0    0.0    0.0      0.0      0.0   -9.90      0.3      0.1     32      0.0      0.0   100      0.3     0.1      32     11.5    0.40      0     -9      0      0     -9     0.0     0.0      0    -9.00      0.0      0.0      0.0   100    17.7     4.476    84.9    3.801   38.011     100       47.91    0.000    0.000     349.7    109.7    0.40   109.7     200.0     120.0      86.4      68.7      46.3      40.0    0.000     0.000     0.000     0.000     0.000    0.40     0.00    0.00      0   -9.90   -9.00       19.7       30.0       30.0       30.0       30.0       30.0       30.0       30.0       30.0       30.0       30.0       30.0        0.0        0.0        0.0        0.0        0.0        0.0        0.0        0.0        0.0        0.0        0.0        0.0      0.0       0.2       6.0      15.5      25.0    384.92
    18     3  2008    -9     0     349.6     0.0      0.0    0.0    0.0    0.0      0.0      0.0   -9.90      0.2      0.1     32      0.0      0.0   100      0.2     0.1      32     11.5    0.40      0     -9      0      0     -9     0.0     0.0      0    -9.00      0.0      0.0      0.0   100    17.7     4.476    84.9    3.801   38.011     100       47.91    0.000    0.000     349.6    109.6    0.40   109.6     200.0     120.0      86.4      68.6      46.3      40.0    0.000     0.000     0.000     0.000     0.000    0.40     0.00    0.00      0   -9.90   -9.00       19.6       30.0       30.0       30.0       30.0       30.0       30.0       30.0       30.0       30.0       30.0       30.0        0.0        0.0        0.0        0.0        0.0        0.0        0.0        0.0        0.0        0.0        0.0        0.0      0.0       0.2       6.0      15.5      25.0    384.92
    19     3  2008    -9     0     349.6     0.0      0.0    0.0    0.0    0.0      0.0      0.0   -9.90      0.1      0.0     32      0.0      0.0   100      0.1     0.0      32      4.9    0.40      0     -9      0      0     -9     0.0     0.0      0    -9.00      0.0      0.0      0.0   100    17.7     4.476    84.9    3.801   38.011     100       47.91    0.000    0.000     349.6    109.6    0.40   109.6     200.0     120.0      86.4      68.4      46.3      40.0    0.000     0.000     0.000     0.000     0.000    0.40     0.00    0.00      0   -9.90   -9.00       19.6       30.0       30.0       30.0       30.0       30.0       30.0       30.0       30.0       30.0       30.0       30.0        0.0        0.0        0.0        0.0        0.0        0.0        0.0        0.0        0.0        0.0        0.0        0.0      0.0       0.1       6.0       8.9      11.8    384.92
    20     3  2008    -9     0     349.6     0.0      0.0    0.0    0.0    0.0      0.0      0.0   -9.90      0.1      0.0     32      0.0      0.0   100      0.1     0.0      32      6.4    0.40      0     -9      0      0     -9     0.0     0.0      0    -9.00      0.0      0.0      0.0   100    17.7     4.476    84.9    3.801   38.011     100       47.91    0.000    0.000     349.6    109.6    0.40   109.6     200.0     120.0      86.4      68.4      46.3      40.0    0.000     0.000     0.000     0.000     0.000    0.40     0.00    0.00      0   -9.90   -9.00       19.6       30.0       30.0       30.0       30.0       30.0       30.0       30.0       30.0       30.0       30.0       30.0        0.0        0.0        0.0        0.0        0.0        0.0        0.0        0.0        0.0        0.0        0.0        0.0      0.0       0.1       6.0      10.4      14.8    384.92
    21     3  2008    -9     0     349.5     0.0      0.0    0.0    0.0    0.0      0.0      0.0   -9.90      0.2      0.1     32      0.0      0.0   100      0.2     0.1      32     11.5    0.40      0     -9      0      0     -9     0.0     0.0      0    -9.00      0.0      0.0      0.0   100    17.7     4.476    84.9    3.801   38.011     100       47.91    0.000    0.000     349.5    109.5    0.40   109.5     200.0     120.0      86.4      68.5      46.3      40.0    0.000     0.000     0.000     0.000     0.000    0.40     0.00    0.00      0   -9.90   -9.00       19.5       30.0       30.0       30.0       30.0       30.0       30.0       30.0       30.0       30.0       30.0       30.0        0.0        0.0        0.0        0.0        0.0        0.0        0.0        0.0        0.0        0.0        0.0        0.0      0.0       0.1       6.0      15.5      25.0    384.92
    22     3  2008    -9     0     349.4     0.0      0.0    0.0    0.0    0.0      0.0      0.0   -9.90      0.3      0.1     31      0.0      0.0   100      0.3     0.1      31     11.5    0.40      0     -9      0      0     -9     0.0     0.0      0    -9.00      0.0      0.0      0.0   100    17.7     4.476    84.9    3.801   38.011     100       47.91    0.000    0.000     349.4    109.4    0.40   109.4     200.0     120.0      86.4      68.7      46.3      40.0    0.000     0.000     0.000     0.000     0.000    0.40     0.00    0.00      0   -9.90   -9.00       19.4       30.0       30.0       30.0       30.0       30.0       30.0       30.0       30.0       30.0       30.0       30.0        0.0        0.0        0.0        0.0        0.0        0.0        0.0        0.0        0.0        0.0        0.0        0.0      0.0       0.2       6.0      15.5      25.0    384.92
    23     3  2008    -9     0     349.3     0.0      0.0    0.0    0.0    0.0      0.0      0.0   -9.90      0.3      0.1     31      0.0      0.0   100      0.3     0.1      31     11.5    0.40      0     -9      0      0     -9     0.0     0.0      0    -9.00      0.0      0.0      0.0   100    17.7     4.476    84.9    3.801   38.011     100       47.91    0.000    0.000     349.3    109.3    0.40   109.3     200.0     120.0      86.4      68.7      46.3      40.0    0.000     0.000     0.000     0.000     0.000    0.40     0.00    0.00      0   -9.90   -9.00       19.3       30.0       30.0       30.0       30.0       30.0       30.0       30.0       30.0       30.0       30.0       30.0        0.0        0.0        0.0        0.0        0.0        0.0        0.0        0.0        0.0        0.0        0.0        0.0      0.0       0.2       6.0      15.5      25.0    384.92
    24     3  2008    -9     0     349.3     0.0      0.0    0.0    0.0    0.0      0.0      0.0   -9.90      0.2      0.1     31      0.0      0.0   100      0.2     0.1      31     11.5    0.40      0     -9      0      0     -9     0.0     0.0      0    -9.00      0.0      0.0      0.0   100    17.7     4.476    84.9    3.801   38.011     100       47.91    0.000    0.000     349.3    109.3    0.40   109.3     200.0     120.0      86.4      68.7      46.3      40.0    0.000     0.000     0.000     0.000     0.000    0.40     0.00    0.00      0   -9.90   -9.00       19.3       30.0       30.0       30.0       30.0       30.0       30.0       30.0       30.0       30.0       30.0       30.0        0.0        0.0        0.0        0.0        0.0        0.0        0.0        0.0        0.0        0.0        0.0        0.0      0.0       0.2       6.0      15.5      25.0    384.92
    25     3  2008    -9     0     349.2     0.0      0.0    0.0    0.0    0.0      0.0      0.0   -9.90      0.1      0.0     31      0.0      0.0   100      0.1     0.0      31      4.7    0.40      0     -9      0      0     -9     0.0     0.0      0    -9.00      0.0      0.0      0.0   100    17.7     4.476    84.9    3.801   38.011     100       47.91    0.000    0.000     349.2    109.2    0.40   109.2     200.0     120.0      86.4      68.4      46.3      40.0    0.000     0.000     0.000     0.000     0.000    0.40     0.00    0.00      0   -9.90   -9.00       19.2       30.0       30.0       30.0       30.0       30.0       30.0       30.0       30.0       30.0       30.0       30.0        0.0        0.0        0.0        0.0        0.0        0.0        0.0        0.0        0.0        0.0        0.0        0.0      0.0       0.1       6.0       8.7      11.4    384.92
    26     3  2008    -9     0     349.1     0.0      0.0    0.0    0.0    0.0      0.0      0.0   -9.90      0.3      0.1     30      0.0      0.0   100      0.3     0.1      30     11.5    0.40      0     -9      0      0     -9     0.0     0.0      0    -9.00      0.0      0.0      0.0   100    17.7     4.476    84.9    3.801   38.011     100       47.91    0.000    0.000     349.1    109.1    0.40   109.1     200.0     120.0      86.4      68.8      46.3      40.0    0.000     0.000     0.000     0.000     0.000    0.40     0.00    0.00      0   -9.90   -9.00       19.1       30.0       30.0       30.0       30.0       30.0       30.0       30.0       30.0       30.0       30.0       30.0        0.0        0.0        0.0        0.0        0.0        0.0        0.0        0.0        0.0        0.0        0.0        0.0      0.0       0.3       6.0      15.5      25.0    384.92
[...]
    16     5  2008    -9     0     343.5     0.0      0.0    0.0    0.0    0.0      0.0      0.0   -9.90      0.3      0.0     16      0.0      0.0   100      0.3     0.0      16     12.1    0.40      0     -9      0      0     -9     0.0     0.0      0    -9.00      0.0      0.0      0.0   100    17.7     4.476    84.9    3.801   38.011     100       47.91    0.000    0.000     343.5    103.5    0.40   103.5     200.0     120.0      86.4      68.8      46.3      40.0    0.000     0.000     0.000     0.000     0.000    0.40     0.00    0.00      0   -9.90   -9.00       13.5       30.0       30.0       30.0       30.0       30.0       30.0       30.0       30.0       30.0       30.0       30.0        0.0        0.0        0.0        0.0        0.0        0.0        0.0        0.0        0.0        0.0        0.0        0.0      0.0       0.3       7.2      16.1      25.0    384.92
    17     5  2008    -9     0     343.4     0.0      0.0    0.0    0.0    0.0      0.0      0.0   -9.90      0.9      0.1     16      0.0      0.0   100      0.9     0.1      16     12.5    0.40      0     -9      0      0     -9     0.0     0.0      0    -9.00      0.0      0.0      0.0   100    17.7     4.476    84.9    3.801   38.011     100       47.91    0.000    0.000     343.4    103.4    0.40   103.4     200.0     120.0      86.4      70.0      46.3      40.0    0.000     0.000     0.000     0.000     0.000    0.40     0.00    0.00      0   -9.90   -9.00       13.4       30.0       30.0       30.0       30.0       30.0       30.0       30.0       30.0       30.0       30.0       30.0        0.0        0.0        0.0        0.0        0.0        0.0        0.0        0.0        0.0        0.0        0.0        0.0      0.0       0.8       8.1      16.5      25.0    384.92
    18     5  2008    -9     0     343.3     0.0      0.0    0.0    0.0    0.0      0.0      0.0   -9.90      0.7      0.1     15      0.0      0.0   100      0.7     0.1      15     12.4    0.40      0     -9      0      0     -9     0.0     0.0      0    -9.00      0.0      0.0      0.0   100    17.7     4.476    84.9    3.801   38.011     100       47.91    0.000    0.000     343.3    103.3    0.40   103.3     200.0     120.0      86.4      69.7      46.3      40.0    0.000     0.000     0.000     0.000     0.000    0.40     0.00    0.00      0   -9.90   -9.00       13.3       30.0       30.0       30.0       30.0       30.0       30.0       30.0       30.0       30.0       30.0       30.0        0.0        0.0        0.0        0.0        0.0        0.0        0.0        0.0        0.0        0.0        0.0        0.0      0.0       0.7       7.8      16.4      25.0    384.92
    19     5  2008    -9     0     343.1     0.0      0.0    0.0    0.0    0.0      0.0      0.0   -9.90      1.1      0.2     15      0.0      0.0   100      1.1     0.2      15     12.0    0.40      0     -9      0      0     -9     0.0     0.0      0    -9.00      0.0      0.0      0.0   100    17.7     4.476    84.9    3.801   38.011     100       47.91    0.000    0.000     343.1    103.1    0.40   103.1     200.0     120.0      86.4      70.5      46.3      40.0    0.000     0.000     0.000     0.000     0.000    0.40     0.00    0.00      0   -9.90   -9.00       13.1       30.0       30.0       30.0       30.0       30.0       30.0       30.0       30.0       30.0       30.0       30.0        0.0        0.0        0.0        0.0        0.0        0.0        0.0        0.0        0.0        0.0        0.0        0.0      0.0       1.0       7.0      16.0      25.0    384.92
    20     5  2008    -9     0     343.0     0.0      0.0    0.0    0.0    0.0      0.0      0.0   -9.90      0.6      0.1     15      0.0      0.0   100      0.6     0.1      15     11.6    0.40      0     -9      0      0     -9     0.0     0.0      0    -9.00      0.0      0.0      0.0   100    17.7     4.476    84.9    3.801   38.011     100       47.91    0.000    0.000     343.0    103.0    0.40   103.0     200.0     120.0      86.4      69.4      46.3      40.0    0.000     0.000     0.000     0.000     0.000    0.40     0.00    0.00      0   -9.90   -9.00       13.0       30.0       30.0       30.0       30.0       30.0       30.0       30.0       30.0       30.0       30.0       30.0        0.0        0.0        0.0        0.0        0.0        0.0        0.0        0.0        0.0        0.0        0.0        0.0      0.0       0.5       6.1      15.6      25.0    384.92
    21     5  2008    -9     0     342.9     0.0      0.0    0.0    0.0    0.0      0.0      0.0   -9.90      0.6      0.1     15      0.0      0.0   100      0.6     0.1      15     12.1    0.40      0     -9      0      0     -9     0.0     0.0      0    -9.00      0.0      0.0      0.0   100    17.7     4.476    84.9    3.801   38.011     100       47.91    0.000    0.000     342.9    102.9    0.40   102.9     200.0     120.0      86.4      69.5      46.3      40.0    0.000     0.000     0.000     0.000     0.000    0.40     0.00    0.00      0   -9.90   -9.00       12.9       30.0       30.0       30.0       30.0       30.0       30.0       30.0       30.0       30.0       30.0       30.0        0.0        0.0        0.0        0.0        0.0        0.0        0.0        0.0        0.0        0.0        0.0        0.0      0.0       0.6       7.2      16.1      25.0    384.92
    22     5  2008    -9     0     342.8     0.0      0.0    0.0    0.0    0.0      0.0      0.0   -9.90      0.7      0.1     15      0.0      0.0   100      0.7     0.1      15     11.9    0.40      0     -9      0      0     -9     0.0     0.0      0    -9.00      0.0      0.0      0.0   100    17.7     4.476    84.9    3.801   38.011     100       47.91    0.000    0.000     342.8    102.8    0.40   102.8     200.0     120.0      86.4      69.8      46.3      40.0    0.000     0.000     0.000     0.000     0.000    0.40     0.00    0.00      0   -9.90   -9.00       12.8       30.0       30.0       30.0       30.0       30.0       30.0       30.0       30.0       30.0       30.0       30.0        0.0        0.0        0.0        0.0        0.0        0.0        0.0        0.0        0.0        0.0        0.0        0.0      0.0       0.7       6.9      15.9      25.0    384.92
    23     5  2008    -9     0     342.7     0.0      0.0    0.0    0.0    0.0      0.0      0.0   -9.90      1.0      0.1     14      0.0      0.0   100      1.0     0.1      14     12.2    0.40      0     -9      0      0     -9     0.0     0.0      0    -9.00      0.0      0.0      0.0   100    17.7     4.476    84.9    3.801   38.011     100       47.91    0.000    0.000     342.7    102.7    0.40   102.7     200.0     120.0      86.4      70.3      46.3      40.0    0.000     0.000     0.000     0.000     0.000    0.40     0.00    0.00      0   -9.90   -9.00       12.7       30.0       30.0       30.0       30.0       30.0       30.0       30.0       30.0       30.0       30.0       30.0        0.0        0.0        0.0        0.0        0.0        0.0        0.0        0.0        0.0        0.0        0.0        0.0      0.0       0.9       7.4      16.2      25.0    384.92
    24     5  2008    -9     0     342.5     0.0      0.0    0.0    0.0    0.0      0.0      0.0   -9.90      1.7      0.2     14      0.0      0.0   100      1.7     0.2      14     11.6    0.40      0     -9      0      0     -9     0.0     0.0      0    -9.00      0.0      0.0      0.0   100    17.7     4.476    84.9    3.801   38.011     100       47.91    0.000    0.000     342.5    102.5    0.40   102.5     200.0     120.0      86.4      71.7      46.3      40.0    0.000     0.000     0.000     0.000     0.000    0.40     0.00    0.00      0   -9.90   -9.00       12.5       30.0       30.0       30.0       30.0       30.0       30.0       30.0       30.0       30.0       30.0       30.0        0.0        0.0        0.0        0.0        0.0        0.0        0.0        0.0        0.0        0.0        0.0        0.0      0.0       1.5       6.2      15.6      25.0    384.92
    25     5  2008    -9     0     342.2     0.0      0.0    0.0    0.0    0.0      0.0      0.0   -9.90      2.2      0.3     14      0.0      0.0   100      2.2     0.3      14     13.2    0.40      0     -9      0      0     -9     0.0     0.0      0    -9.00      0.0      0.0      0.0   100    17.7     4.476    84.9    3.801   38.011     100       47.91    0.000    0.000     342.2    102.2    0.40   102.2     200.0     120.0      86.4      72.8      46.3      40.0    0.000     0.000     0.000     0.000     0.000    0.40     0.00    0.00      0   -9.90   -9.00       12.2       30.0       30.0       30.0       30.0       30.0       30.0       30.0       30.0       30.0       30.0       30.0        0.0        0.0        0.0        0.0        0.0        0.0        0.0        0.0        0.0        0.0        0.0        0.0      0.0       2.0       9.4      17.2      25.0    384.92
    26     5  2008    -9     0     342.0     0.0      0.0    0.0    0.0    0.0      0.0      0.0   -9.90      0.9      0.1     13      0.0      0.0   100      0.9     0.1      13     13.5    0.40      0     -9      0      0     -9     0.0     0.0      0    -9.00      0.0      0.0      0.0   100    17.7     4.476    84.9    3.801   38.011     100       47.91    0.000    0.000     342.0    102.0    0.40   102.0     200.0     120.0      86.4      70.1      46.3      40.0    0.000     0.000     0.000     0.000     0.000    0.40     0.00    0.00      0   -9.90   -9.00       12.0       30.0       30.0       30.0       30.0       30.0       30.0       30.0       30.0       30.0       30.0       30.0        0.0        0.0        0.0        0.0        0.0        0.0        0.0        0.0        0.0        0.0        0.0        0.0      0.0       0.8      10.0      17.5      25.0    384.92
    27     5  2008    -9     0     341.6     0.0      0.0    0.0    0.0    0.0      0.0      0.0   -9.90      3.8      0.5     13      0.0      0.0   100      3.8     0.5      13     13.1    0.40      0     -9      0      0     -9     0.0     0.0      0    -9.00      0.0      0.0      0.0   100    17.7     4.476    84.9    3.801   38.011     100       47.91    0.000    0.000     341.6    101.6    0.40   101.6     200.0     120.0      86.4      76.3      46.3      40.0    0.000     0.000     0.000     0.000     0.000    0.40     0.00    0.00      0   -9.90   -9.00       11.6       30.0       30.0       30.0       30.0       30.0       30.0       30.0       30.0       30.0       30.0       30.0        0.0        0.0        0.0        0.0        0.0        0.0        0.0        0.0        0.0        0.0        0.0        0.0      0.0       3.5       9.1      17.1      25.0    384.92
    28     5  2008    -9     0     341.4     0.0      0.0    0.0    0.0    0.0      0.0      0.0   -9.90      0.9      0.1     12      0.0      0.0   100      0.9     0.1      12     12.8    0.40      0     -9      0      0     -9     0.0     0.0      0    -9.00      0.0      0.0      0.0   100    17.7     4.476    84.9    3.801   38.011     100       47.91    0.000    0.000     341.4    101.4    0.40   101.4     200.0     120.0      86.4      70.1      46.3      40.0    0.000     0.000     0.000     0.000     0.000    0.40     0.00    0.00      0   -9.90   -9.00       11.4       30.0       30.0       30.0       30.0       30.0       30.0       30.0       30.0       30.0       30.0       30.0        0.0        0.0        0.0        0.0        0.0        0.0        0.0        0.0        0.0        0.0        0.0        0.0      0.0       0.8       8.6      16.8      25.0    384.92
    29     5  2008    -9     0     341.3     0.0      0.0    0.0    0.0    0.0      0.0      0.0   -9.90      0.9      0.1     12      0.0      0.0   100      0.9     0.1      12     12.7    0.40      0     -9      0      0     -9     0.0     0.0      0    -9.00      0.0      0.0      0.0   100    17.7     4.476    84.9    3.801   38.011     100       47.91    0.000    0.000     341.3    101.3    0.40   101.3     200.0     120.0      86.4      70.0      46.3      40.0    0.000     0.000     0.000     0.000     0.000    0.40     0.00    0.00      0   -9.90   -9.00       11.3       30.0       30.0       30.0       30.0       30.0       30.0       30.0       30.0       30.0       30.0       30.0        0.0        0.0        0.0        0.0        0.0        0.0        0.0        0.0        0.0        0.0        0.0        0.0      0.0       0.8       8.4      16.7      25.0    384.92
    30     5  2008    -9     0     341.3     0.0      0.0    0.0    0.0    0.0      0.0      0.0   -9.90      0.5      0.1     12      0.0      0.0   100      0.5     0.1      12     12.1    0.40      0     -9      0      0     -9     0.0     0.0      0    -9.00      0.0      0.0      0.0   100    17.7     4.476    84.9    3.801   38.011     100       47.91    0.000    0.000     341.3    101.3    0.40   101.3     200.0     120.0      86.4      69.2      46.3      40.0    0.000     0.000     0.000     0.000     0.000    0.40     0.00    0.00      0   -9.90   -9.00       11.3       30.0       30.0       30.0       30.0       30.0       30.0       30.0       30.0       30.0       30.0       30.0        0.0        0.0        0.0        0.0        0.0        0.0        0.0        0.0        0.0        0.0        0.0        0.0      0.0       0.4       7.1      16.1      25.0    384.92
    31     5  2008    -9     0     341.2     0.0      0.0    0.0    0.0    0.0      0.0      0.0   -9.90      0.5      0.1     12      0.0      0.0   100      0.5     0.1      12     13.6    0.40      0     -9      0      0     -9     0.0     0.0      0    -9.00      0.0      0.0      0.0   100    17.7     4.476    84.9    3.801   38.011     100       47.91    0.000    0.000     341.2    101.2    0.40   101.2     200.0     120.0      86.4      69.3      46.3      40.0    0.000     0.000     0.000     0.000     0.000    0.40     0.00    0.00      0   -9.90   -9.00       11.2       30.0       30.0       30.0       30.0       30.0       30.0       30.0       30.0       30.0       30.0       30.0        0.0        0.0        0.0        0.0        0.0        0.0        0.0        0.0        0.0        0.0        0.0        0.0      0.0       0.5      10.2      17.6      25.0    384.92
     1     6  2008    -9     0     341.1     0.0      0.0    0.0    0.0    0.0      0.0      0.0   -9.90      0.9      0.1     12      0.0      0.0   100      0.9     0.1      12     13.7    0.40      0     -9      0      0     -9     0.0     0.0      0    -9.00      0.0      0.0      0.0   100    17.7     4.476    84.9    3.801   38.011     100       47.91    0.000    0.000     341.1    101.1    0.40   101.1     200.0     120.0      86.4      70.1      46.3      40.0    0.000     0.000     0.000     0.000     0.000    0.40     0.00    0.00      0   -9.90   -9.00       11.1       30.0       30.0       30.0       30.0       30.0       30.0       30.0       30.0       30.0       30.0       30.0        0.0        0.0        0.0        0.0        0.0        0.0        0.0        0.0        0.0        0.0        0.0        0.0      0.0       0.8      10.5      17.7      25.0    384.92
     2     6  2008    -9     0     341.0     0.0      0.0    0.0    0.0    0.0      0.0      0.0   -9.90      0.9      0.1     12      0.0      0.0   100      0.9     0.1      12     13.4    0.40      0     -9      0      0     -9     0.0     0.0      0    -9.00      0.0      0.0      0.0   100    17.7     4.476    84.9    3.801   38.011     100       47.91    0.000    0.000     341.0    101.0    0.40   101.0     200.0     120.0      86.4      70.1      46.3      40.0    0.000     0.000     0.000     0.000     0.000    0.40     0.00    0.00      0   -9.90   -9.00       11.0       30.0       30.0       30.0       30.0       30.0       30.0       30.0       30.0       30.0       30.0       30.0        0.0        0.0        0.0        0.0        0.0        0.0        0.0        0.0        0.0        0.0        0.0        0.0      0.0       0.8       9.8      17.4      25.0    384.92
     3     6  2008    -9     0     341.0     0.0      0.0    0.0    0.0    0.0      0.0      0.0   -9.90      0.5      0.1     12      0.0      0.0   100      0.5     0.1      12     13.6    0.40      0     -9      0      0     -9     0.0     0.0      0    -9.00      0.0      0.0      0.0   100    17.7     4.476    84.9    3.801   38.011     100       47.91    0.000    0.000     341.0    101.0    0.40   101.0     200.0     120.0      86.4      69.1      46.3      40.0    0.000     0.000     0.000     0.000     0.000    0.40     0.00    0.00      0   -9.90   -9.00       11.0       30.0       30.0       30.0       30.0       30.0       30.0       30.0       30.0       30.0       30.0       30.0        0.0        0.0        0.0        0.0        0.0        0.0        0.0        0.0        0.0        0.0        0.0        0.0      0.0       0.4      10.3      17.6      25.0    384.92
     4     6  2008    -9     0     340.9     0.0      0.0    0.0    0.0    0.0      0.0      0.0   -9.90      0.7      0.1     11      0.0      0.0   100      0.7     0.1      11     14.4    0.40      0     -9      0      0     -9     0.0     0.0      0    -9.00      0.0      0.0      0.0   100    17.7     4.476    84.9    3.801   38.011     100       47.91    0.000    0.000     340.9    100.9    0.40   100.9     200.0     120.0      86.4      69.8      46.3      40.0    0.000     0.000     0.000     0.000     0.000    0.40     0.00    0.00      0   -9.90   -9.00       10.9       30.0       30.0       30.0       30.0       30.0       30.0       30.0       30.0       30.0       30.0       30.0        0.0        0.0        0.0        0.0        0.0        0.0        0.0        0.0        0.0        0.0        0.0        0.0      0.0       0.7      11.9      18.4      25.0    384.92
     5     6  2008    -9     0     340.8     0.0      0.0    0.0    0.0    0.0      0.0      0.0   -9.90      0.5      0.1     11      0.0      0.0   100      0.5     0.1      11     12.9    0.40      0     -9      0      0     -9     0.0     0.0      0    -9.00      0.0      0.0      0.0   100    17.7     4.476    84.9    3.801   38.011     100       47.91    0.000    0.000     340.8    100.8    0.40   100.8     200.0     120.0      86.4      69.3      46.3      40.0    0.000     0.000     0.000     0.000     0.000    0.40     0.00    0.00      0   -9.90   -9.00       10.8       30.0       30.0       30.0       30.0       30.0       30.0       30.0       30.0       30.0       30.0       30.0        0.0        0.0        0.0        0.0        0.0        0.0        0.0        0.0        0.0        0.0        0.0        0.0      0.0       0.5       8.9      16.9      25.0    384.92
     6     6  2008    -9     0     340.8     0.0      0.0    0.0    0.0    0.0      0.0      0.0   -9.90      0.5      0.1     11      0.0      0.0   100      0.5     0.1      11     12.7    0.40      0     -9      0      0     -9     0.0     0.0      0    -9.00      0.0      0.0      0.0   100    17.7     4.476    84.9    3.801   38.011     100       47.91    0.000    0.000     340.8    100.8    0.40   100.8     200.0     120.0      86.4      69.3      46.3      40.0    0.000     0.000     0.000     0.000     0.000    0.40     0.00    0.00      0   -9.90   -9.00       10.8       30.0       30.0       30.0       30.0       30.0       30.0       30.0       30.0       30.0       30.0       30.0        0.0        0.0        0.0        0.0        0.0        0.0        0.0        0.0        0.0        0.0        0.0        0.0      0.0       0.5       8.5      16.7      25.0    384.92
