AquaCrop 7.2 (August 2024) - Output created on (date) : 20-11-2024   at (time) : 14:57:01

    RunNr     Day1   Month1    Year1     Rain      ETo       GD     CO2      Irri   Infilt   Runoff    Drain   Upflow        E     E/Ex       Tr      TrW   Tr/Trx    SaltIn   SaltOut    SaltUp  SaltProf     Cycle   SaltStr  FertStr  WeedStr  TempStr   ExpStr   StoStr  BioMass  Brelative   HI    Y(dry)  Y(fresh)    WPet      Bin     Bout     DayN   MonthN    YearN
                                           mm       mm  degC.day    ppm        mm       mm       mm       mm       mm       mm        %       mm       mm        %    ton/ha    ton/ha    ton/ha    ton/ha      days       %        %        %        %        %        %    ton/ha        %       %    ton/ha   ton/ha    kg/m3   ton/ha   ton/ha
   Tot(1)       31       12     2007      0.0     59.2   1578.4   384.92      0.0      0.0      0.0      0.0      0.0     15.9       26      3.3      3.3      100     0.000     0.000     0.000     0.000       56        0        0        0        3        0        0     4.476      100     84.9    3.801   38.011    47.91    0.000    0.000        6        6     2008  yar.PRM
